pypower/wecc240_scheduling_storage.csv
number,essname,busname,ESS_Type,Capacity,SOC_Max,SOC_Min,ETA_ch,ETA_dis,ESS_LossRate,CH_Max,DIS_Max,Min_Ch_Time,Min_Dis_Time,Initial_Ch_Status,Initial_Dis_Status,Initial_Ch_Time,Initial_Dis_Time,ESS_Pow0,ESS_RR,ESS_InitSOC,Final_SOC,Enforce_Final_SOC,ESS_AGC_up_Flag,ESS_AGC_dn_Flag,ESS_Spin_Flag,ESS_AGC_up_Price,ESS_AGC_dn_Price,ESS_Spin_Price,ESS_Bid
1,Pump_ESS1,2638,ESS-2,12720,1,0.05,0.93,0.93,0,1272,1272,2.5,2.5,0,1,0,0.5,0,10.6,0.8,0.8,1,1,1,1,0.001,0.001,0.001,0.01
2,Pump_ESS2,7031,ESS-2,1332,1,0.05,0.95,0.95,0,333,333,2.5,2.5,0,1,0,1.3,0,2.78,0.8,0.8,1,1,1,1,0.001,0.001,0.001,0.01
3,Pump_ESS3,7032,ESS-2,1000,1,0.05,0.95,0.95,0,200,200,2.5,2.5,0,1,0,2.1,0,1.67,0.8,0.8,1,1,1,1,0.001,0.001,0.001,0.01
4,Pump_ESS4,3432,ESS-2,186354,1,0.05,0.96,0.96,0,1218,1218,2.5,2.5,0,1,0,2.1,0,10.15,0.8,0.8,1,1,1,1,0.001,0.001,0.001,0.01